2024 J. Nat Med Di-caffeoylquinic acid a potential inhibitor for amyloid-beta ag
  DSViewer          3D                             0

 61 63  0  0  0  0  0  0  0  0999 V2000
    8.7244   -1.7944   -4.2878 O   0  0
   -3.0561   -0.6628    0.9660 O   0  0
   -2.7431   -3.1765   -0.2631 O   0  0
    1.0845   -1.1689   -4.2296 O   0  0
    9.2641   -1.5798   -1.4833 O   0  0
   -5.7499   -0.2807   -3.9861 O   0  0
  -11.9475   -3.7849   -1.9867 O   0  0
    0.5593   -0.9644   -1.9696 O   0  0
   -3.7481   -1.1782   -3.2674 O   0  0
  -11.0216   -5.7659   -0.3750 O   0  0
    1.4425   -1.1159   -3.0474 C   0  0
    2.8535   -1.2357   -2.6273 C   0  0
    3.8928   -1.3528   -3.4410 C   0  0
    5.3089   -1.4308   -2.9007 C   0  0
    6.4280   -1.5880   -3.8291 C   0  0
    7.6811   -1.6389   -3.3845 C   0  0
    7.9557   -1.5358   -1.9559 C   0  0
    6.9483   -1.3989   -1.1020 C   0  0
    5.5756   -1.3452   -1.5917 C   0  0
   -1.5219   -2.1935   -2.6571 C   0  0
   -3.0920   -2.2304   -2.4999 C   0  0  1  0  0  0
   -3.3637   -2.0890   -0.9565 C   0  0  2  0  0  0
   -2.7830   -0.7692   -0.4289 C   0  0  2  0  0  0
   -1.2825   -0.7778   -0.6244 C   0  0
   -0.8799   -0.8955   -2.1017 C   0  0  1  0  0  0
   -8.6928   -5.0478   -0.7688 C   0  0
  -10.1288   -4.8967   -0.9904 C   0  0
  -10.5813   -3.9264   -1.7791 C   0  0
   -9.6467   -3.0027   -2.4231 C   0  0
   -8.3326   -3.1299   -2.2276 C   0  0
   -7.4188   -2.1496   -2.8700 C   0  0
   -6.0920   -2.2356   -2.7374 C   0  0
   -5.2069   -1.1913   -3.3527 C   0  0
   -7.8356   -4.2161   -1.3540 C   0  0
   -1.2771    0.3457   -2.9046 C   0  0
   -0.8132    1.5973   -2.5402 O   0  0
   -1.9551    0.2430   -3.9308 O   0  0
    8.3586   -1.8498   -5.2054 H   0  0
   -2.6760    0.1822    1.3098 H   0  0
   -2.9156   -3.0946    0.7062 H   0  0
    9.8891   -1.6818   -2.2411 H   0  0
  -12.1101   -3.0196   -2.5913 H   0  0
  -10.5201   -6.4190    0.1738 H   0  0
    3.0322   -1.2257   -1.6160 H   0  0
    3.7309   -1.3779   -4.4577 H   0  0
    6.2446   -1.6699   -4.8566 H   0  0
    7.1418   -1.3229   -0.0606 H   0  0
    4.8041   -1.2289   -0.9026 H   0  0
   -1.1496   -3.0147   -2.0659 H   0  0
   -1.2265   -2.3345   -3.7054 H   0  0
   -3.4669   -3.1982   -2.8637 H   0  0
   -4.4373   -2.1122   -0.7675 H   0  0
   -3.2298    0.0701   -0.9550 H   0  0
   -0.8408    0.1386   -0.2094 H   0  0
   -0.8881   -1.6493   -0.0837 H   0  0
   -8.3350   -5.8224   -0.1382 H   0  0
  -10.0132   -2.2229   -3.0387 H   0  0
   -7.8307   -1.3512   -3.4304 H   0  0
   -5.6761   -3.0269   -2.1850 H   0  0
   -6.7965   -4.3328   -1.1828 H   0  0
   -0.2633    1.5214   -1.7428 H   0  0
  1 16  1  0  0  0
 23  2  1  0  0  0
 22  3  1  0  0  0
  4 11  2  0  0  0
  5 17  1  0  0  0
  6 33  2  0  0  0
  7 28  1  0  0  0
  8 11  1  0  0  0
  8 25  1  0  0  0
 21  9  1  0  0  0
  9 33  1  0  0  0
 10 27  1  0  0  0
 11 12  1  0  0  0
 12 13  2  0  0  0
 13 14  1  0  0  0
 14 15  1  0  0  0
 14 19  2  0  0  0
 15 16  2  0  0  0
 16 17  1  0  0  0
 17 18  2  0  0  0
 18 19  1  0  0  0
 20 21  1  0  0  0
 21 22  1  0  0  0
 22 23  1  0  0  0
 23 24  1  0  0  0
 24 25  1  0  0  0
 26 27  1  0  0  0
 26 34  2  0  0  0
 27 28  2  0  0  0
 28 29  1  0  0  0
 29 30  2  0  0  0
 30 31  1  0  0  0
 30 34  1  0  0  0
 31 32  2  0  0  0
 32 33  1  0  0  0
 36 35  1  0  0  0
 37 35  2  0  0  0
 25 20  1  0  0  0
 25 35  1  0  0  0
  1 38  1  0  0  0
  2 39  1  0  0  0
  3 40  1  0  0  0
  5 41  1  0  0  0
  7 42  1  0  0  0
 10 43  1  0  0  0
 12 44  1  0  0  0
 13 45  1  0  0  0
 15 46  1  0  0  0
 18 47  1  0  0  0
 19 48  1  0  0  0
 20 49  1  0  0  0
 20 50  1  0  0  0
 21 51  1  0  0  0
 22 52  1  0  0  0
 23 53  1  0  0  0
 24 54  1  0  0  0
 24 55  1  0  0  0
 26 56  1  0  0  0
 29 57  1  0  0  0
 31 58  1  0  0  0
 32 59  1  0  0  0
 34 60  1  0  0  0
 36 61  1  0  0  0
M  END
> <OBJECTID>
9223372036858118146

> <DOCUMENT.LOCATION>
D:\documents\WeChat Files\gxdym01\FileStorage\File\2024-07\2024 J. Nat Med Di-caffeoylquinic acid a potential inhibitor for amyloid-beta aggregation.pdf

> <PAGE.NUMBER>
4

> <IMAGE.NUMBER>
1

> <STRUCTURE.NUMBER>
1

> <FAULTY>
NO

> <Clean Energy>
-3.81941

$$$$
2024 J. Nat Med Di-caffeoylquinic acid a potential inhibitor for amyloid-beta ag
  DSViewer          3D                             0

 61 63  0  0  0  0  0  0  0  0999 V2000
    5.1441   -6.0194    3.2674 O   0  0
    3.6995   -3.5596    4.0521 O   0  0
    0.0399   -4.0277   -0.5358 O   0  0
    6.4085   -4.4032    2.2749 O   0  0
   -3.2962   -6.3990   -5.7453 O   0  0
    2.2018   -3.3382   -0.2715 O   0  0
    0.4497   -4.8580    1.6441 O   0  0
   -4.7551   -6.7546   -3.4432 O   0  0
    1.5215   -4.0228    2.0733 C   0  0  2  0  0  0
    1.8069   -2.8419    1.0452 C   0  0  1  0  0  0
    2.9934   -1.9760    1.6189 C   0  0  1  0  0  0
    4.2328   -2.8706    1.7471 C   0  0
    3.9781   -4.0387    2.7007 C   0  0  1  0  0  0
    5.2025   -4.8888    2.7732 C   0  0
    2.7958   -4.8887    2.2001 C   0  0
   -2.7964   -6.1157   -2.0980 C   0  0
   -3.4211   -6.3496   -3.3875 C   0  0
   -2.7141   -6.1786   -4.5023 C   0  0
   -1.3188   -5.7466   -4.4281 C   0  0
   -0.7360   -5.5015   -3.2549 C   0  0
    0.7070   -5.0259   -3.3239 C   0  0
    1.4910   -4.4240   -2.3938 C   0  0
    1.1715   -3.9782   -1.0042 C   0  0
   -1.5293   -5.7164   -2.0258 C   0  0
    3.9531    6.6443   -3.9232 O   0  0
    5.8412    4.6231   -3.1098 O   0  0
    1.3358    0.1140    0.8490 O   0  0
    3.4059   -0.8996    0.7609 O   0  0
    2.5018    0.1140    0.4470 C   0  0
    3.0088    1.1826   -0.4227 C   0  0
    2.2061    2.1361   -0.8897 C   0  0
    2.7088    3.2696   -1.7136 C   0  0
    1.7604    4.2907   -2.1341 C   0  0
    2.1727    5.3449   -2.8324 C   0  0
    3.5849    5.4970   -3.1919 C   0  0
    4.4654    4.5542   -2.8129 C   0  0
    3.9988    3.3974   -2.0434 C   0  0
    2.9078   -2.9839    4.1017 H   0  0
    7.1140   -5.0840    2.3949 H   0  0
   -2.6315   -6.2192   -6.4554 H   0  0
    0.3114   -5.5788    2.3046 H   0  0
   -5.0355   -6.8719   -4.3819 H   0  0
    1.2637   -3.5964    3.0510 H   0  0
    0.9176   -2.2086    0.9388 H   0  0
    2.7175   -1.5738    2.6026 H   0  0
    4.4851   -3.2592    0.7494 H   0  0
    5.0686   -2.2799    2.1270 H   0  0
    2.6227   -5.7163    2.9010 H   0  0
    3.0364   -5.2948    1.2061 H   0  0
   -3.3507   -6.2703   -1.2074 H   0  0
   -0.7682   -5.6036   -5.3231 H   0  0
    1.1762   -5.1735   -4.2643 H   0  0
    2.4749   -4.2059   -2.7130 H   0  0
   -1.1042   -5.5760   -1.0895 H   0  0
    4.9052    6.6658   -4.1124 H   0  0
    6.0656    5.4213   -3.6139 H   0  0
    4.0366    1.1862   -0.6670 H   0  0
    1.1869    2.1083   -0.6336 H   0  0
    0.7371    4.1967   -1.8769 H   0  0
    1.4732    6.0849   -3.1288 H   0  0
    4.7045    2.6727   -1.7366 H   0  0
  1 14  2  0  0  0
 13  2  1  0  0  0
  3 23  2  0  0  0
  4 14  1  0  0  0
  5 18  1  0  0  0
  6 10  1  0  0  0
  6 23  1  0  0  0
  7  9  1  0  0  0
  8 17  1  0  0  0
  9 10  1  0  0  0
  9 15  1  0  0  0
 10 11  1  0  0  0
 11 12  1  0  0  0
 12 13  1  0  0  0
 13 14  1  0  0  0
 13 15  1  0  0  0
 16 17  1  0  0  0
 16 24  2  0  0  0
 17 18  2  0  0  0
 18 19  1  0  0  0
 19 20  2  0  0  0
 20 21  1  0  0  0
 20 24  1  0  0  0
 21 22  2  0  0  0
 22 23  1  0  0  0
 25 35  1  0  0  0
 26 36  1  0  0  0
 27 29  2  0  0  0
 28 29  1  0  0  0
 29 30  1  0  0  0
 30 31  2  0  0  0
 31 32  1  0  0  0
 32 33  1  0  0  0
 32 37  2  0  0  0
 33 34  2  0  0  0
 34 35  1  0  0  0
 35 36  2  0  0  0
 36 37  1  0  0  0
 11 28  1  0  0  0
  2 38  1  0  0  0
  4 39  1  0  0  0
  5 40  1  0  0  0
  7 41  1  0  0  0
  8 42  1  0  0  0
  9 43  1  0  0  0
 10 44  1  0  0  0
 11 45  1  0  0  0
 12 46  1  0  0  0
 12 47  1  0  0  0
 15 48  1  0  0  0
 15 49  1  0  0  0
 16 50  1  0  0  0
 19 51  1  0  0  0
 21 52  1  0  0  0
 22 53  1  0  0  0
 24 54  1  0  0  0
 25 55  1  0  0  0
 26 56  1  0  0  0
 30 57  1  0  0  0
 31 58  1  0  0  0
 33 59  1  0  0  0
 34 60  1  0  0  0
 37 61  1  0  0  0
M  END
> <OBJECTID>
9223372041153085442

> <Clean Energy>
0.85987

> <DOCUMENT.LOCATION>
D:\documents\WeChat Files\gxdym01\FileStorage\File\2024-07\2024 J. Nat Med Di-caffeoylquinic acid a potential inhibitor for amyloid-beta aggregation.pdf

> <PAGE.NUMBER>
4

> <IMAGE.NUMBER>
1

> <STRUCTURE.NUMBER>
2

> <FAULTY>
NO

$$$$
2024 J. Nat Med Di-caffeoylquinic acid a potential inhibitor for amyloid-beta ag
  DSViewer          3D                             0

 60 62  0  0  0  0  0  0  0  0999 V2000
    8.9150    4.1148    4.0502 O   0  0
   -0.1278    6.6969    1.2740 O   0  0
    1.3707    3.8573    3.5327 O   0  0
    9.6209    3.4013    1.3670 O   0  0
   -4.2068    3.1487   -3.1887 O   0  0
   -8.9707   -1.0330   -0.1409 O   0  0
    0.7816    3.3247    1.3297 O   0  0
   -3.0989    4.1100   -1.4547 O   0  0
   -0.3641    1.2376    2.9237 O   0  0
   -8.7611   -1.5958    2.5325 O   0  0
   -2.3275    2.3659    2.9735 O   0  0
    1.7216    3.5867    2.3874 C   0  0
    3.1475    3.5336    2.0463 C   0  0
    4.1305    3.7337    2.9272 C   0  0
    5.5777    3.6426    2.4968 C   0  0
    6.6363    3.9236    3.4741 C   0  0
    7.9201    3.8474    3.1180 C   0  0
    8.2830    3.4813    1.7483 C   0  0
    7.3304    3.2234    0.8600 C   0  0
    5.9268    3.3062    1.2446 C   0  0
   -1.1672    2.3183    2.5492 C   0  0
   -0.6580    3.3961    1.6019 C   0  0  2  0  0  0
   -1.4043    3.2526    0.1953 C   0  0
   -2.6870    4.2377   -0.0767 C   0  0  1  0  0  0
   -1.8754    5.6131    0.0258 C   0  0
   -1.3137    5.9269    1.4504 C   0  0  1  0  0  0
   -1.2352    4.6462    2.2226 C   0  0
   -7.8311   -0.7671    1.9122 C   0  0
   -7.9310   -0.4981    0.6127 C   0  0
   -6.9543    0.3760   -0.0321 C   0  0
   -5.9610    0.9224    0.6810 C   0  0
   -4.9616    1.8607    0.0828 C   0  0
   -4.9420    2.1284   -1.2320 C   0  0
   -4.0364    3.1128   -1.9655 C   0  0
   -5.8597    0.6237    2.1095 C   0  0
   -6.7451   -0.1821    2.6930 C   0  0
    8.5010    4.3433    4.9168 H   0  0
   -0.3457    7.5226    0.7774 H   0  0
   10.2016    3.6217    2.1339 H   0  0
   -9.5508   -1.5963    0.4241 H   0  0
    0.5165    1.3041    2.5076 H   0  0
   -8.5380   -1.6817    3.4913 H   0  0
    3.3941    3.3295    1.0672 H   0  0
    3.8956    3.9549    3.9381 H   0  0
    6.3795    4.1876    4.4676 H   0  0
    7.5911    2.9567   -0.1343 H   0  0
    5.1930    3.0937    0.5195 H   0  0
   -0.7284    3.6892   -0.5326 H   0  0
   -1.5061    2.1902   -0.0631 H   0  0
   -3.5403    4.1674    0.6135 H   0  0
   -1.0302    5.4158   -0.6358 H   0  0
   -2.3907    6.5081   -0.3450 H   0  0
   -2.0385    6.5012    2.0431 H   0  0
   -2.2874    4.3903    2.3772 H   0  0
   -0.8002    4.8276    3.2092 H   0  0
   -7.0565    0.5832   -1.0627 H   0  0
   -4.2825    2.3216    0.7253 H   0  0
   -5.6369    1.6206   -1.8399 H   0  0
   -5.0754    1.0510    2.6819 H   0  0
   -6.6656   -0.3953    3.7283 H   0  0
  1 17  1  0  0  0
 26  2  1  0  0  0
  3 12  2  0  0  0
  4 18  1  0  0  0
  5 34  2  0  0  0
  6 29  1  0  0  0
  7 12  1  0  0  0
 22  7  1  0  0  0
  8 24  1  0  0  0
  8 34  1  0  0  0
  9 21  1  0  0  0
 10 28  1  0  0  0
 11 21  2  0  0  0
 12 13  1  0  0  0
 13 14  2  0  0  0
 14 15  1  0  0  0
 15 16  1  0  0  0
 15 20  2  0  0  0
 16 17  2  0  0  0
 17 18  1  0  0  0
 18 19  2  0  0  0
 19 20  1  0  0  0
 21 22  1  0  0  0
 22 23  1  0  0  0
 22 27  1  0  0  0
 23 24  1  0  0  0
 24 25  1  0  0  0
 25 26  1  0  0  0
 26 27  1  0  0  0
 28 29  2  0  0  0
 28 36  1  0  0  0
 29 30  1  0  0  0
 30 31  2  0  0  0
 31 32  1  0  0  0
 31 35  1  0  0  0
 32 33  2  0  0  0
 33 34  1  0  0  0
 35 36  2  0  0  0
  1 37  1  0  0  0
  2 38  1  0  0  0
  4 39  1  0  0  0
  6 40  1  0  0  0
  9 41  1  0  0  0
 10 42  1  0  0  0
 13 43  1  0  0  0
 14 44  1  0  0  0
 16 45  1  0  0  0
 19 46  1  0  0  0
 20 47  1  0  0  0
 23 48  1  0  0  0
 23 49  1  0  0  0
 24 50  1  0  0  0
 25 51  1  0  0  0
 25 52  1  0  0  0
 26 53  1  0  0  0
 27 54  1  0  0  0
 27 55  1  0  0  0
 30 56  1  0  0  0
 32 57  1  0  0  0
 33 58  1  0  0  0
 35 59  1  0  0  0
 36 60  1  0  0  0
M  END
> <OBJECTID>
9223372045448052738

> <Clean Energy>
92.8091

> <DOCUMENT.LOCATION>
D:\documents\WeChat Files\gxdym01\FileStorage\File\2024-07\2024 J. Nat Med Di-caffeoylquinic acid a potential inhibitor for amyloid-beta aggregation.pdf

> <PAGE.NUMBER>
4

> <IMAGE.NUMBER>
1

> <STRUCTURE.NUMBER>
3

> <FAULTY>
NO

$$$$
2024 J. Nat Med Di-caffeoylquinic acid a potential inhibitor for amyloid-beta ag
  DSViewer          3D                             0

 61 63  0  0  0  0  0  0  0  0999 V2000
    0.4443    8.1353    7.7091 O   0  0
    0.8065    7.8033    5.4785 O   0  0
   -0.3728    5.7717    8.3941 O   0  0
   -4.2489    5.2769    6.2853 O   0  0
    3.3550    3.3642    7.4524 O   0  0
  -10.5420    5.6243    2.2248 O   0  0
    9.8249    0.5289    5.0945 O   0  0
   -2.7549    3.9013    5.2084 O   0  0
    1.6244    2.5327    6.1566 O   0  0
   -1.0102    1.8899    5.9553 O   0  0
   -9.6050    4.5799   -0.2937 O   0  0
    8.9303   -1.7394    3.6170 O   0  0
   -0.5849    3.2477    5.8452 C   0  0
   -1.7393    4.1707    6.1971 C   0  0  1  0  0  0
   -1.2511    5.6359    6.0596 C   0  0
   -0.0423    5.9283    6.9890 C   0  0
    0.4148    7.3499    6.7559 C   0  0
    1.0862    4.9517    6.5292 C   0  0
    0.6530    3.4654    6.7008 C   0  0  2  0  0  0
   -7.4011    4.2736    0.7215 C   0  0
   -8.7849    4.7027    0.8461 C   0  0
   -9.2196    5.1906    2.0218 C   0  0
   -8.2876    5.2807    3.1606 C   0  0
   -7.0271    4.8724    3.0411 C   0  0
   -6.1099    4.9735    4.2106 C   0  0
   -4.8892    4.4333    4.1826 C   0  0
   -3.9686    4.5663    5.3131 C   0  0
   -6.5684    4.3475    1.7546 C   0  0
    6.7123   -1.1473    4.1219 C   0  0
    5.7347   -0.2691    4.7594 C   0  0
    6.1458    0.7885    5.4715 C   0  0
    5.1902    1.7153    6.1484 C   0  0
    3.8724    1.6286    5.9576 C   0  0
    2.9498    2.5612    6.6043 C   0  0
    7.5823    1.0568    5.5889 C   0  0
    8.4670    0.2597    4.9920 C   0  0
    8.0110   -0.8962    4.2298 C   0  0
    0.7393    7.0866    4.8012 H   0  0
   -0.6814    4.8631    8.6042 H   0  0
  -11.0821    5.5250    1.4241 H   0  0
    9.9582    1.3439    5.6376 H   0  0
   -1.7865    1.7368    5.3638 H   0  0
  -10.5095    4.8860   -0.1275 H   0  0
    8.4472   -2.4679    3.1484 H   0  0
   -0.3034    3.4574    4.8215 H   0  0
   -2.0869    3.9750    7.2197 H   0  0
   -0.9225    5.7954    5.0252 H   0  0
   -2.0733    6.3243    6.2914 H   0  0
    1.9935    5.1423    7.1134 H   0  0
    1.2894    5.1396    5.4663 H   0  0
    0.4480    3.2573    7.7591 H   0  0
   -7.0526    3.8948   -0.2060 H   0  0
   -8.6269    5.6663    4.0867 H   0  0
   -6.4339    5.4815    5.0819 H   0  0
   -4.5604    3.9026    3.3265 H   0  0
   -5.5667    4.0308    1.6347 H   0  0
    6.3862   -1.9884    3.5732 H   0  0
    4.7044   -0.4866    4.6569 H   0  0
    5.5717    2.4788    6.7770 H   0  0
    3.4764    0.8981    5.3047 H   0  0
    7.9175    1.8970    6.1412 H   0  0
  1 17  2  0  0  0
  2 17  1  0  0  0
  3 16  1  0  0  0
  4 27  2  0  0  0
  5 34  2  0  0  0
  6 22  1  0  0  0
  7 36  1  0  0  0
  8 14  1  0  0  0
  8 27  1  0  0  0
  9 19  1  0  0  0
  9 34  1  0  0  0
 10 13  1  0  0  0
 11 21  1  0  0  0
 12 37  1  0  0  0
 13 14  1  0  0  0
 13 19  1  0  0  0
 14 15  1  0  0  0
 15 16  1  0  0  0
 16 17  1  0  0  0
 16 18  1  0  0  0
 18 19  1  0  0  0
 20 21  1  0  0  0
 20 28  2  0  0  0
 21 22  2  0  0  0
 22 23  1  0  0  0
 23 24  2  0  0  0
 24 25  1  0  0  0
 24 28  1  0  0  0
 25 26  2  0  0  0
 26 27  1  0  0  0
 29 30  1  0  0  0
 29 37  2  0  0  0
 30 31  2  0  0  0
 31 32  1  0  0  0
 31 35  1  0  0  0
 32 33  2  0  0  0
 33 34  1  0  0  0
 35 36  2  0  0  0
 36 37  1  0  0  0
  2 38  1  0  0  0
  3 39  1  0  0  0
  6 40  1  0  0  0
  7 41  1  0  0  0
 10 42  1  0  0  0
 11 43  1  0  0  0
 12 44  1  0  0  0
 13 45  1  0  0  0
 14 46  1  0  0  0
 15 47  1  0  0  0
 15 48  1  0  0  0
 18 49  1  0  0  0
 18 50  1  0  0  0
 19 51  1  0  0  0
 20 52  1  0  0  0
 23 53  1  0  0  0
 25 54  1  0  0  0
 26 55  1  0  0  0
 28 56  1  0  0  0
 29 57  1  0  0  0
 30 58  1  0  0  0
 32 59  1  0  0  0
 33 60  1  0  0  0
 35 61  1  0  0  0
M  END
> <OBJECTID>
9223372049743020034

> <Clean Energy>
1.49962

> <DOCUMENT.LOCATION>
D:\documents\WeChat Files\gxdym01\FileStorage\File\2024-07\2024 J. Nat Med Di-caffeoylquinic acid a potential inhibitor for amyloid-beta aggregation.pdf

> <PAGE.NUMBER>
4

> <IMAGE.NUMBER>
1

> <STRUCTURE.NUMBER>
4

> <FAULTY>
NO

$$$$
2024 J. Nat Med Di-caffeoylquinic acid a potential inhibitor for amyloid-beta ag
  DSViewer          3D                             0

 61 63  0  0  0  0  0  0  0  0999 V2000
    4.2188    3.3538   -6.8741 O   0  0
    6.0390    1.5309   -6.0027 O   0  0
    2.4677   -4.9179   -7.3017 O   0  0
    3.7546   -5.5794   -5.4978 O   0  0
    3.3055   -4.5693   -6.4635 C   0  0
    3.7137   -3.1268   -6.4492 C   0  0
    3.0358   -2.2204   -7.1724 C   0  0
    3.3833   -0.7530   -7.1374 C   0  0
    2.4137    0.2297   -7.6335 C   0  0
    2.6787    1.5354   -7.5509 C   0  0
    3.9446    1.9937   -6.9774 C   0  0
    4.8338    1.1054   -6.5505 C   0  0
    4.5419   -0.3177   -6.6371 C   0  0
    9.1392   -6.1642   -5.2527 O   0  0
    6.0757   -6.5544   -6.7456 O   0  0
    4.3947   -7.4840   -0.9739 O   0  0
    8.4128   -5.0022   -7.0707 O   0  0
   -0.8124   -8.9722    4.1502 O   0  0
    3.4309   -6.5582   -2.8591 O   0  0
    5.5148   -8.6312   -2.9983 O   0  0
   -3.1069   -8.9685    2.6352 O   0  0
    5.4047   -7.5974   -3.9734 C   0  0  1  0  0  0
    4.7681   -6.3035   -3.3528 C   0  0  1  0  0  0
    4.6742   -5.1728   -4.4316 C   0  0  1  0  0  0
    6.1324   -4.8954   -4.9241 C   0  0
    6.7905   -6.1490   -5.5452 C   0  0  2  0  0  0
    8.1861   -5.7830   -5.9409 C   0  0
    6.8256   -7.2562   -4.4709 C   0  0
   -1.7954   -8.4858    0.6116 C   0  0
   -1.8690   -8.7355    2.0440 C   0  0
   -0.7543   -8.7387    2.7763 C   0  0
    0.5446   -8.4874    2.1378 C   0  0
    0.6148   -8.2472    0.8298 C   0  0
    1.9399   -7.9670    0.2165 C   0  0
    2.0523   -7.5463   -1.0461 C   0  0
    3.3691   -7.2358   -1.6167 C   0  0
   -0.6211   -8.2536    0.0322 C   0  0
    3.4557    3.8722   -7.2278 H   0  0
    6.5738    0.7420   -5.7313 H   0  0
    4.5077   -2.8100   -5.8370 H   0  0
    2.1993   -2.5370   -7.7400 H   0  0
    1.4931   -0.0973   -8.0423 H   0  0
    1.9702    2.2433   -7.8980 H   0  0
    5.2464   -1.0008   -6.2837 H   0  0
    5.1579   -6.8231   -6.5655 H   0  0
    7.5510   -4.7770   -7.5013 H   0  0
   -1.7484   -9.1176    4.4302 H   0  0
    6.0874   -8.3187   -2.2553 H   0  0
   -3.8144   -8.9278    1.9435 H   0  0
    4.7855   -7.9482   -4.8102 H   0  0
    5.4018   -5.9398   -2.5321 H   0  0
    4.2579   -4.2746   -3.9526 H   0  0
    6.1304   -4.0892   -5.6650 H   0  0
    6.7303   -4.5870   -4.0544 H   0  0
    7.4108   -6.9023   -3.6103 H   0  0
    7.2999   -8.1511   -4.8936 H   0  0
   -2.6821   -8.4883    0.0275 H   0  0
    1.4281   -8.4806    2.7225 H   0  0
    2.8139   -8.0709    0.8066 H   0  0
    1.1893   -7.3976   -1.6380 H   0  0
   -0.5838   -8.0769   -1.0084 H   0  0
  1 11  1  0  0  0
  2 12  1  0  0  0
  3  5  2  0  0  0
  4  5  1  0  0  0
  5  6  1  0  0  0
  6  7  2  0  0  0
  7  8  1  0  0  0
  8  9  1  0  0  0
  8 13  2  0  0  0
  9 10  2  0  0  0
 10 11  1  0  0  0
 11 12  2  0  0  0
 12 13  1  0  0  0
 14 27  2  0  0  0
 26 15  1  0  0  0
 16 36  2  0  0  0
 17 27  1  0  0  0
 18 31  1  0  0  0
 19 36  1  0  0  0
 23 19  1  0  0  0
 22 20  1  0  0  0
 21 30  1  0  0  0
 22 23  1  0  0  0
 22 28  1  0  0  0
 23 24  1  0  0  0
 24 25  1  0  0  0
 25 26  1  0  0  0
 26 27  1  0  0  0
 26 28  1  0  0  0
 29 30  1  0  0  0
 29 37  2  0  0  0
 30 31  2  0  0  0
 31 32  1  0  0  0
 32 33  2  0  0  0
 33 34  1  0  0  0
 33 37  1  0  0  0
 34 35  2  0  0  0
 35 36  1  0  0  0
 24  4  1  0  0  0
  1 38  1  0  0  0
  2 39  1  0  0  0
  6 40  1  0  0  0
  7 41  1  0  0  0
  9 42  1  0  0  0
 10 43  1  0  0  0
 13 44  1  0  0  0
 15 45  1  0  0  0
 17 46  1  0  0  0
 18 47  1  0  0  0
 20 48  1  0  0  0
 21 49  1  0  0  0
 22 50  1  0  0  0
 23 51  1  0  0  0
 24 52  1  0  0  0
 25 53  1  0  0  0
 25 54  1  0  0  0
 28 55  1  0  0  0
 28 56  1  0  0  0
 29 57  1  0  0  0
 32 58  1  0  0  0
 34 59  1  0  0  0
 35 60  1  0  0  0
 37 61  1  0  0  0
M  END
> <OBJECTID>
9223372054037987330

> <Clean Energy>
3.79844

> <DOCUMENT.LOCATION>
D:\documents\WeChat Files\gxdym01\FileStorage\File\2024-07\2024 J. Nat Med Di-caffeoylquinic acid a potential inhibitor for amyloid-beta aggregation.pdf

> <PAGE.NUMBER>
4

> <IMAGE.NUMBER>
1

> <STRUCTURE.NUMBER>
5

> <FAULTY>
NO

$$$$
